(Symbol 02_mutual_inductor_01);
($Id:$);
(PHYSICAL);
(RESOLUTION 1000);
9 02_mutual_inductor_01;
DS 0 1 1;
DF;
E
(ELECTRICAL);
(RESOLUTION 1000);
5 7102  (||2:-36000 9000||) (||2:-31000 9000||) (||1:-30000 10000||) (||1:-30000 0||);
5 7101 tran 1p 3n;
5 14 1 L 0 L 1 1;
5 11 X 0 subckt;
9 02_mutual_inductor_01;
DS 0 1 1;
(SymbolCall gnd);
5 10 0 0 -37000 20000;
1 Bound -38000 20000 -36000 22600;
9 gnd;
C 0 MY T -38000 21000;
(SymbolCall gnd);
5 10 0 0 -20000 0;
1 Bound -21000 -2600 -19000 0;
( Rotate 180 );
9 gnd;
C 0 MY R -1 0 T -19000 -1000;
(SymbolCall gnd);
5 10 0 0 -37000 -10000;
1 Bound -38000 -12600 -36000 -10000;
( Rotate 180 );
9 gnd;
C 0 MY R -1 0 T -36000 -11000;
(SymbolCall ind);
5 17 mutual;
5 2 1n;
5 10 3 1 -37000 0 L0-;
5 10 2 0 -37000 10000 L0+;
5 15 -36000 9000 0 -1;
5 11 L 0;
1 Bound -37000 0 -35500 10000;
9 ind;
C 0 T -38000 0;
(SymbolCall ind);
5 17 mutual;
5 2 1n;
5 11 L 1;
5 15 -31000 9000 0 -1;
5 10 0 1 -30000 0 L1-;
5 10 1 0 -30000 10000 L1+;
1 Bound -31500 0 -30000 10000;
( Rotate 180 );
9 ind;
C 0 MY R -1 0 T -29000 0;
(SymbolCall isrc);
5 2 pwl(0 0 1ns 0 2ns 1u);
5 5 nophys;
5 11 I 0;
5 10 0 0 -37000 20000 I0_0;
5 10 2 1 -37000 10000 I0_1;
5 15 -37000 14000 0 -1 @<name>[c];
1 Bound -39000 10000 -35000 20000;
( Rotate 180 );
9 isrc;
C 0 MY R -1 0 T -35000 10000;
(SymbolCall res);
5 2 1e-6;
5 11 R 0;
5 10 1 0 -20000 10000 R0+;
5 10 0 1 -20000 0 R0-;
5 15 -21000 9000 0 -1 "<v>/<value>O";
1 Bound -21250 0 -19000 10000;
9 res;
C 0 T -20000 10000;
(SymbolCall res);
5 2 1e-6;
5 10 0 1 -37000 -10000 R1-;
5 10 3 0 -37000 0 R1+;
5 15 -38000 -1000 0 -1 "<v>/<value>O";
5 11 R 1;
1 Bound -38250 -10000 -36000 0;
9 res;
C 0 T -37000 0;
L SCED;
5 10 1;
W2 0 -30000 10000 -20000 10000;
5 10 0;
W2 0 -30000 0 -20000 0;
L NAME;
5 16 I 0 11;
94 <<I0>> -39250 18750 320 975 1000;
5 16 L 1 11;
94 <<L1>> -27750 7750 320 1050 1000;
5 16 R 0 11;
94 <<R0>> -17500 6750 320 1275 1000;
5 16 L 0 11;
94 <<L0>> -37250 4750 320 1275 1000;
5 16 R 1 11;
94 <<R1>> -38500 -3250 320 1050 1000;
L VALU;
5 16 I 0 2;
94 <<pwl(0 0 1ns 0 2ns 1u)>> -34750 19750 33024 11325 1000;
5 16 L 1 2;
94 <<1n>> -29750 9750 33024 1050 1000;
5 16 L 0 2;
94 <<1n>> -39250 7750 33024 1050 1000;
5 16 K 1 14;
94 <<K1=1>> -34587 4500 0 1950 1000;
5 16 R 0 2;
94 <<1e-6>> -18750 4750 33024 2250 1000;
5 16 R 1 2;
94 <<1e-6>> -38750 -5250 33024 2250 1000;
DF;
E
* Generated by Xic from cell 02_mutual_inductor_01
.tran 1p 3n
.plot tran  L0#branch L1#branch v(1) v(0)
I0 0 2 pwl(0 0 1ns 0 2ns 1u)
K1 L0 L1 1
L0 2 3 1n
L1 1 0 1n
R0 1 0 1e-6
R1 3 0 1e-6
.save @I0[c]
